Circuit: * C:\Users\robin\OneDrive\Documents\FunProjects\Eagle\Projects\Umod4PCB\Spice\AdcDivider1.asc

Limiting fall time of source v1 to 0.09
Direct Newton iteration for .op point succeeded.

Date: Mon May 22 17:00:15 2023
Total elapsed time: 0.130 seconds.

tnom = 27
temp = 27
method = modified trap
totiter = 2115
traniter = 2106
tranpoints = 1054
accept = 1051
rejected = 3
matrix size = 5
fillins = 0
solver = Normal
Matrix Compiler1:       9 opcodes  0.1/[0.0]/0.1
Matrix Compiler2: 321 bytes object code size  0.0/0.0/[0.0]

