Circuit: * C:\Users\robin\OneDrive\Documents\FunProjects\Eagle\Projects\Umod4PCB\Spice\VoltageClamp.asc

Direct Newton iteration for .op point succeeded.

Date: Sat Jun 10 15:04:16 2023
Total elapsed time: 0.109 seconds.

tnom = 27
temp = 27
method = modified trap
totiter = 2200
traniter = 2187
tranpoints = 1081
accept = 1072
rejected = 9
matrix size = 10
fillins = 0
solver = Normal
Matrix Compiler1: 578 bytes object code size  0.2/0.1/[0.1]
Matrix Compiler2: off  [0.1]/0.2/0.1

